Circuit: * Z:\home\dud\Desktop\ElectronicBasic\Duza Lib\examples\Bordodynov\Alternative_a_transformer\B_H_steel_.asc

Direct Newton iteration for .op point succeeded.

Date: Mon Nov 17 05:30:15 2025
Total elapsed time: 1.401 seconds.

tnom = 27
temp = 27
method = modified trap
totiter = 26227
traniter = 26223
tranpoints = 6320
accept = 4731
rejected = 1589
matrix size = 12
fillins = 5
solver = Normal
Matrix Compiler1: 464 bytes object code size  0.1/0.1/[0.1]
Matrix Compiler2: off  [0.1]/0.1/0.1

