Circuit: * Z:\home\dud\Desktop\ElectronicBasic\Duza Lib\examples\Bordodynov\Alternative_a_transformer\FerriteChan.asc

Per .tran options, skipping operating point for transient analysis.

Date: Tue Nov 18 02:30:17 2025
Total elapsed time: 2.500 seconds.

tnom = 27
temp = 27
method = modified trap
totiter = 269584
traniter = 269584
tranpoints = 29934
accept = 22204
rejected = 7730
matrix size = 13
fillins = 5
solver = Normal
Matrix Compiler1:      33 opcodes  0.4/[0.3]/0.3
Matrix Compiler2: off  [0.3]/0.4/0.3

